LAMMPS (15 Sep 2022)
# 3D WCA system, random initial configuration

# Variable density equal 0.8 to 1.5
variable initial_temperature equal 3.0
variable final_temperature equal 0.1
variable dt equal 0.01
variable tau equal 100*0.01
variable thermo_time equal 50000*0.01
variable equil_steps equal 50000
variable run_steps equal 100000

units           lj
atom_style      atomic
dimension       3

# Use FCC lattice with a region of size 8x8x8
lattice         fcc 0.5
Lattice spacing in x,y,z = 2 2 2
region          box block 0 8 0 8 0 8
# Number of atom types
create_box      1 box
Created orthogonal box = (0 0 0) to (16 16 16)
create_atoms    1 box
Created 2048 atoms
mass 1 1.0

velocity all create 3 12345

pair_style      lj/cut 1.0
# Type_1 type_2 epsilon sigma cutoff
pair_coeff      1 1 10.0 0.89089871814 1.0
pair_modify shift yes

timestep 0.01
thermo 500

fix 1 all nvt temp 3 3 1
run 50000
Generated 0 of 0 mixed pair_coeff terms from geometric mixing rule
Step          Temp          E_pair         E_mol          TotEng         Press
0   3              0              0              4.4978027      1.4992676
Averages over the last 51 of 101 rows, steps 25000 to 50000:
Temp E_pair E_mol TotEng Press
3.00538 0.375378 0 4.88124 3.93437
Loop time of 18.959 on 1 procs for 50000 steps with 2048 atoms

unfix 1
dump           1 all atom 100000 3dWCA_T0.1_d1.5_N100000.lammpstrj
dump           2 all dcd 500 3dWCA_T0.1_d1.5_N100000.dcd
fix 1 all nvt temp 3 0.1 1

run 100000
Generated 0 of 0 mixed pair_coeff terms from geometric mixing rule
Step          Temp          E_pair         E_mol          TotEng         Press
50000   3.0912713      0.36940397     0              5.0040467      3.9377815
Averages over the last 101 of 201 rows, steps 100000 to 150000:
Temp E_pair E_mol TotEng Press
0.82488 0.0777401 0 1.31446 1.16371
Loop time of 28.3795 on 1 procs for 100000 steps with 2048 atoms
